ODSS/sub/Branches.dss
New "Line.mdv201_connector" bus1=_mdv_sub_1_lsb bus2=mdv201 length=0.001 r1=0.001 r0=0.001 x1=0.01 x0=0.01 C1=0 C0=0 units=km enabled=true phases=3
New "Line.mdv201_hn_2_793_abc1023346_sw" bus1=mdv201 bus2=mdv201_hn_2_793_abc1023346_int length=0.001 Switch=True units=km enabled=true phases=3
New "Line.mdv201_hn_2_793_abc1023346" bus1=mdv201_hn_2_793_abc1023346_int bus2=1023346 length=0.04572 geometry=3PH_HORIZ_LG_1C-AL_556_19STRAL_556_19STRAL_556_19STRACSR_1/0_6/1 normamps=619 emergamps=743 units=km enabled=true phases=3
New "Line.sw-hn_2_793_sw" bus1=1023346 bus2=mdv201_796usd_int length=0.001 Switch=True units=km enabled=true phases=3
New "Line.mdv201_796usd" bus1=mdv201_796usd_int bus2=796 length=0.001524 geometry=3PH_HORIZ_LG_1C-BUSBARBUSBARBUSBARBUSBAR normamps=2000 emergamps=2400 units=km enabled=true phases=3
New "Line.mdv202_osw_796" bus1=mdv202_osw_796_int bus2=796 length=0.001524 geometry=3PH_HORIZ_LG_1C-BUSBARBUSBARBUSBARBUSBAR normamps=2000 emergamps=2400 units=km enabled=true phases=3
New "Line.mdv201_hn_2_794_abc791" bus1=796 bus2=791 length=0.0597408 geometry=3PH_HORIZ_LG_1C-AL_556_19STRAL_556_19STRAL_556_19STRACSR_1/0_6/1 normamps=619 emergamps=743 units=km enabled=true phases=3
New "Line.mdv201_hn_2_795_abc788" bus1=791 bus2=788 length=0.0667512 geometry=3PH_HORIZ_LG_1C-AL_556_19STRAL_556_19STRAL_556_19STRACSR_1/0_6/1 normamps=619 emergamps=743 units=km enabled=true phases=3
New "Line.mdv201_hn_2_796_abc782" bus1=788 bus2=782 length=0.0679704 geometry=3PH_VERT_1C-AL_556_19STRAL_556_19STRAL_556_19STRACSR_1/0_6/1 normamps=619 emergamps=743 units=km enabled=true phases=3
New "Line.mdv201_hn_2_808_abc783" bus1=782 bus2=783 length=0.0573024 geometry=3PH_VERT_1C-AL_556_19STRAL_556_19STRAL_556_19STRACSR_1/0_6/1 normamps=619 emergamps=743 units=km enabled=true phases=3
New "Line.mdv201_hn_2_809_abc861" bus1=783 bus2=861 length=0.0585216 geometry=3PH_VERT_1C-AL_556_19STRAL_556_19STRAL_556_19STRACSR_1/0_6/1 normamps=619 emergamps=743 units=km enabled=true phases=3
New "Line.mdv201_hn_2_810_abc63685" bus1=861 bus2=63685 length=0.0734568 geometry=3PH_VERT_1C-AL_556_19STRAL_556_19STRAL_556_19STRACSR_1/0_6/1 normamps=619 emergamps=743 units=km enabled=true phases=3
New "Line.mdv201_hn_2_811_abc63638" bus1=63685 bus2=63638 length=0.0938784 geometry=3PH_HORIZ_LG_1C-AL_556_19STRAL_556_19STRAL_556_19STRACSR_1/0_6/1 normamps=619 emergamps=743 units=km enabled=true phases=3
New "Line.mdv201_hn_2_436_abc63639" bus1=63638 bus2=63639 length=0.0423672 geometry=3PH_HORIZ_LG_1C-AL_556_19STRAL_556_19STRAL_556_19STRACSR_1/0_6/1 normamps=619 emergamps=743 units=km enabled=true phases=3
New "Line.s_mdv201_hn_2_436_abc63639-1b0" bus1=x_63639.2 bus2=x_63639_1.2 linecode=defaultSecondary normamps=400 emergamps=600 phases=1 length=100 units=ft
New "Line.mdv201_hn_2_435_abc63643" bus1=63639 bus2=63643 length=0.0606552 geometry=3PH_HORIZ_LG_1C-AL_556_19STRAL_556_19STRAL_556_19STRACSR_1/0_6/1 normamps=619 emergamps=743 units=km enabled=true phases=3
New "Line.s_mdv201_hn_2_435_abc63643-1b1" bus1=x_63643.2 bus2=x_63643_2.2 linecode=defaultSecondary normamps=400 emergamps=600 phases=1 length=100 units=ft
New "Line.s_mdv201_hn_2_435_abc63643-1b0" bus1=x_63643.2 bus2=x_63643_1.2 linecode=defaultSecondary normamps=400 emergamps=600 phases=1 length=100 units=ft
New "Line.mdv201_hn_2_434_abc63645" bus1=63643 bus2=63645 length=0.0612648 geometry=3PH_HORIZ_LG_1C-AL_556_19STRAL_556_19STRAL_556_19STRACSR_1/0_6/1 normamps=619 emergamps=743 units=km enabled=true phases=3
New "Line.s_mdv201_hn_2_434_abc63645-1b1" bus1=x_63645.2 bus2=x_63645_2.2 linecode=defaultSecondary normamps=400 emergamps=600 phases=1 length=100 units=ft
New "Line.s_mdv201_hn_2_434_abc63645-1b0" bus1=x_63645.2 bus2=x_63645_1.2 linecode=defaultSecondary normamps=400 emergamps=600 phases=1 length=100 units=ft
New "Line.mdv201_hn_2_408_abc63655" bus1=63645 bus2=63655 length=0.06096 geometry=3PH_HORIZ_LG_1C-AL_556_19STRAL_556_19STRAL_556_19STRACSR_1/0_6/1 normamps=619 emergamps=743 units=km enabled=true phases=3
New "Line.s_mdv201_hn_2_408_abc63655-1b1" bus1=x_63655.2 bus2=x_63655_2.2 linecode=defaultSecondary normamps=400 emergamps=600 phases=1 length=100 units=ft
New "Line.s_mdv201_hn_2_408_abc63655-1b0" bus1=x_63655.2 bus2=x_63655_1.2 linecode=defaultSecondary normamps=400 emergamps=600 phases=1 length=100 units=ft
New "Line.mdv201_hn_2_395_abc63657" bus1=63655 bus2=63657 length=0.0691896 geometry=3PH_VERT_1C-AL_556_19STRAL_556_19STRAL_556_19STRACSR_1/0_6/1 normamps=619 emergamps=743 units=km enabled=true phases=3
New "Line.s_mdv201_hn_2_395_abc63657-1b0" bus1=x_63657.2 bus2=x_63657_1.2 linecode=defaultSecondary normamps=400 emergamps=600 phases=1 length=100 units=ft
New "Line.mdv201_hn_2_812_abc63656" bus1=63657 bus2=63656 length=0.047244 geometry=3PH_VERT_1C-AL_4/0_7STRAL_4/0_7STRAL_4/0_7STRACSR_1/0_6/1 normamps=338 emergamps=406 units=km enabled=true phases=3
New "Line.sw-hn_2_812_sw" bus1=63656 bus2=mdv201_107107usd_int length=0.001 Switch=True units=km enabled=true phases=3
New "Line.mdv201_107107usd" bus1=mdv201_107107usd_int bus2=107107 length=0.001524 geometry=3PH_HORIZ_LG_1C-BUSBARBUSBARBUSBARBUSBAR normamps=2000 emergamps=2400 units=km enabled=true phases=3
New "Line.mdv201_hn_2_813_abc63654" bus1=107107 bus2=63654 length=0.100584 geometry=3PH_HORIZ_LG_1C-AL_4/0_7STRAL_4/0_7STRAL_4/0_7STRACSR_1/0_6/1 normamps=338 emergamps=406 units=km enabled=true phases=3
New "Line.mdv201_hn_2_814_abc14891" bus1=63654 bus2=14891 length=0.10668 geometry=3PH_HORIZ_LG_1C-AL_4/0_7STRAL_4/0_7STRAL_4/0_7STRACSR_1/0_6/1 normamps=338 emergamps=406 units=km enabled=true phases=3
New "Line.mdv201_hn_2_815_abc14892" bus1=14891 bus2=14892 length=0.0917448 geometry=3PH_HORIZ_LG_1C-AL_4/0_7STRAL_4/0_7STRAL_4/0_7STRACSR_1/0_6/1 normamps=338 emergamps=406 units=km enabled=true phases=3
New "Line.mdv201_hn_2_828_abc28247" bus1=14892 bus2=28247 length=0.0908304 geometry=3PH_HORIZ_LG_1C-AL_4/0_7STRAL_4/0_7STRAL_4/0_7STRACSR_1/0_6/1 normamps=338 emergamps=406 units=km enabled=true phases=3
New "Line.mdv201_hn_2_823_abc28244" bus1=28247 bus2=28244 length=0.0478536 geometry=3PH_VERT_1C-AL_4/0_7STRAL_4/0_7STRAL_4/0_7STRACSR_1/0_6/1 normamps=338 emergamps=406 units=km enabled=true phases=3
New "Line.mdv201_hn_2_283_abc14857" bus1=28244 bus2=14857 length=0.0307848 geometry=3PH_VERT_1C-AL_4/0_7STRAL_4/0_7STRAL_4/0_7STRACSR_1/0_6/1 normamps=338 emergamps=406 units=km enabled=true phases=3
New "Line.s_mdv201_hn_2_283_abc14857-1b1" bus1=x_14857.2 bus2=x_14857_2.2 linecode=defaultSecondary normamps=400 emergamps=600 phases=1 length=100 units=ft
New "Line.s_mdv201_hn_2_283_abc14857-1b0" bus1=x_14857.2 bus2=x_14857_1.2 linecode=defaultSecondary normamps=400 emergamps=600 phases=1 length=100 units=ft
New "Line.mdv201_hn_2_963_a14858" bus1=14857.1 bus2=14858.1 length=0.019812 geometry=1PH-AL_#2_7STRNONENONEACSR_1/0_6/1 normamps=163 emergamps=196 units=km enabled=true phases=1
New "Line.mdv201_14869fuse" bus1=14858.1 bus2=14869.1 length=0.001524 geometry=1PH-BUSBARNONENONEBUSBAR normamps=2000 emergamps=2400 units=km enabled=true phases=1
New "Line.mdv201_hn_2_964_a14870" bus1=14869.1 bus2=14870.1 length=0.0804672 geometry=1PH-AL_#2_7STRNONENONEACSR_1/0_6/1 normamps=163 emergamps=196 units=km enabled=true phases=1
New "Line.s_mdv201_hn_2_964_a14870-1a3" bus1=x_14870.1 bus2=x_14870_4.1 linecode=defaultSecondary normamps=400 emergamps=600 phases=1 length=100 units=ft
New "Line.s_mdv201_hn_2_964_a14870-1a2" bus1=x_14870.1 bus2=x_14870_3.1 linecode=defaultSecondary normamps=400 emergamps=600 phases=1 length=100 units=ft
New "Line.s_mdv201_hn_2_964_a14870-1a1" bus1=x_14870.1 bus2=x_14870_2.1 linecode=defaultSecondary normamps=400 emergamps=600 phases=1 length=100 units=ft
New "Line.s_mdv201_hn_2_964_a14870-1a0" bus1=x_14870.1 bus2=x_14870_1.1 linecode=defaultSecondary normamps=400 emergamps=600 phases=1 length=100 units=ft
New "Line.mdv201_hn_2_965_a63726" bus1=14870.1 bus2=63726.1 length=0.0688848 geometry=1PH-AL_#2_7STRNONENONEACSR_1/0_6/1 normamps=163 emergamps=196 units=km enabled=true phases=1
New "Line.mdv201_hn_2_966_a63718" bus1=63726.1 bus2=63718.1 length=0.064008 geometry=1PH-AL_#2_7STRNONENONEACSR_1/0_6/1 normamps=163 emergamps=196 units=km enabled=true phases=1
New "Line.s_mdv201_hn_2_966_a63718-1a3" bus1=x_63718.1 bus2=x_63718_4.1 linecode=defaultSecondary normamps=400 emergamps=600 phases=1 length=100 units=ft
New "Line.s_mdv201_hn_2_966_a63718-1a2" bus1=x_63718.1 bus2=x_63718_3.1 linecode=defaultSecondary normamps=400 emergamps=600 phases=1 length=100 units=ft
New "Line.s_mdv201_hn_2_966_a63718-1a1" bus1=x_63718.1 bus2=x_63718_2.1 linecode=defaultSecondary normamps=400 emergamps=600 phases=1 length=100 units=ft
New "Line.s_mdv201_hn_2_966_a63718-1a0" bus1=x_63718.1 bus2=x_63718_1.1 linecode=defaultSecondary normamps=400 emergamps=600 phases=1 length=100 units=ft
New "Line.mdv201_hn_2_967_a63715" bus1=63718.1 bus2=63715.1 length=0.0560832 geometry=1PH-AL_#2_7STRNONENONEACSR_1/0_6/1 normamps=163 emergamps=196 units=km enabled=true phases=1
New "Line.s_mdv201_hn_2_967_a63715-1a2" bus1=x_63715.1 bus2=x_63715_3.1 linecode=defaultSecondary normamps=400 emergamps=600 phases=1 length=100 units=ft
New "Line.s_mdv201_hn_2_967_a63715-1a1" bus1=x_63715.1 bus2=x_63715_2.1 linecode=defaultSecondary normamps=400 emergamps=600 phases=1 length=100 units=ft
New "Line.s_mdv201_hn_2_967_a63715-1a0" bus1=x_63715.1 bus2=x_63715_1.1 linecode=defaultSecondary normamps=400 emergamps=600 phases=1 length=100 units=ft
New "Line.mdv201_hn_2_968_a63713" bus1=63715.1 bus2=63713.1 length=0.0551688 geometry=1PH-AL_#2_7STRNONENONEACSR_1/0_6/1 normamps=163 emergamps=196 units=km enabled=true phases=1
New "Line.s_mdv201_hn_2_968_a63713-1a3" bus1=x_63713.1 bus2=x_63713_4.1 linecode=defaultSecondary normamps=400 emergamps=600 phases=1 length=100 units=ft
New "Line.s_mdv201_hn_2_968_a63713-1a2" bus1=x_63713.1 bus2=x_63713_3.1 linecode=defaultSecondary normamps=400 emergamps=600 phases=1 length=100 units=ft
New "Line.s_mdv201_hn_2_968_a63713-1a1" bus1=x_63713.1 bus2=x_63713_2.1 linecode=defaultSecondary normamps=400 emergamps=600 phases=1 length=100 units=ft
New "Line.s_mdv201_hn_2_968_a63713-1a0" bus1=x_63713.1 bus2=x_63713_1.1 linecode=defaultSecondary normamps=400 emergamps=600 phases=1 length=100 units=ft
New "Line.mdv201_hn_2_969_a63709" bus1=63713.1 bus2=63709.1 length=0.0536448 geometry=1PH-AL_#2_7STRNONENONEACSR_1/0_6/1 normamps=163 emergamps=196 units=km enabled=true phases=1
New "Line.s_mdv201_hn_2_969_a63709-1a1" bus1=x_63709.1 bus2=x_63709_2.1 linecode=defaultSecondary normamps=400 emergamps=600 phases=1 length=100 units=ft
New "Line.s_mdv201_hn_2_969_a63709-1a0" bus1=x_63709.1 bus2=x_63709_1.1 linecode=defaultSecondary normamps=400 emergamps=600 phases=1 length=100 units=ft
New "Line.mdv201_hn_2_970_a63710" bus1=63709.1 bus2=63710.1 length=0.04572 geometry=1PH-AL_#2_7STRNONENONEACSR_1/0_6/1 normamps=163 emergamps=196 units=km enabled=true phases=1
New "Line.s_mdv201_hn_2_970_a63710-1a3" bus1=x_63710.1 bus2=x_63710_4.1 linecode=defaultSecondary normamps=400 emergamps=600 phases=1 length=100 units=ft
New "Line.s_mdv201_hn_2_970_a63710-1a2" bus1=x_63710.1 bus2=x_63710_3.1 linecode=defaultSecondary normamps=400 emergamps=600 phases=1 length=100 units=ft
New "Line.s_mdv201_hn_2_970_a63710-1a1" bus1=x_63710.1 bus2=x_63710_2.1 linecode=defaultSecondary normamps=400 emergamps=600 phases=1 length=100 units=ft
New "Line.s_mdv201_hn_2_970_a63710-1a0" bus1=x_63710.1 bus2=x_63710_1.1 linecode=defaultSecondary normamps=400 emergamps=600 phases=1 length=100 units=ft
New "Line.mdv201_hn_2_094_abc51012" bus1=14857 bus2=51012 length=0.0515112 geometry=3PH_HORIZ_LG_1C-AL_4/0_7STRAL_4/0_7STRAL_4/0_7STRACSR_1/0_6/1 normamps=338 emergamps=406 units=km enabled=true phases=3
New "Line.s_mdv201_hn_2_094_abc51012-1b0" bus1=x_51012.2 bus2=x_51012_1.2 linecode=defaultSecondary normamps=400 emergamps=600 phases=1 length=100 units=ft
New "Line.mdv201_1144254fuse" bus1=28244.2 bus2=1144254.2 length=0.001524 geometry=1PH-NONEBUSBARNONEBUSBAR normamps=2000 emergamps=2400 units=km enabled=true phases=1
New "Line.mdv201_hn_2_729_b28246" bus1=1144254.2 bus2=28246.2 length=0.0262128 geometry=1PH-NONEAL_#2_7STRNONEACSR_1/0_6/1 normamps=163 emergamps=196 units=km enabled=true phases=1
New "Line.s_mdv201_hn_2_729_b28246-1b0" bus1=x_28246.2 bus2=x_28246_1.2 linecode=defaultSecondary normamps=400 emergamps=600 phases=1 length=100 units=ft
New "Line.mdv201_hn_2_730_b14851" bus1=28246.2 bus2=14851.2 length=0.0966216 geometry=1PH-NONEAL_#2_7STRNONEACSR_1/0_6/1 normamps=163 emergamps=196 units=km enabled=true phases=1
New "Line.mdv201_hn_2_731_b14852" bus1=14851.2 bus2=14852.2 length=0.09144 geometry=1PH-NONEAL_#2_7STRNONEACSR_1/0_6/1 normamps=163 emergamps=196 units=km enabled=true phases=1
New "Line.s_mdv201_hn_2_731_b14852-1b0" bus1=x_14852.2 bus2=x_14852_1.2 linecode=defaultSecondary normamps=400 emergamps=600 phases=1 length=100 units=ft
New "Line.mdv201_hn_2_394_abc63658" bus1=63657 bus2=63658 length=0.0381 geometry=3PH_VERT_1C-AL_556_19STRAL_556_19STRAL_556_19STRACSR_1/0_6/1 normamps=619 emergamps=743 units=km enabled=true phases=3
New "Line.s_mdv201_hn_2_394_abc63658-1b0" bus1=x_63658.2 bus2=x_63658_1.2 linecode=defaultSecondary normamps=400 emergamps=600 phases=1 length=100 units=ft
New "Line.mdv201_hn_2_393_abc63659" bus1=63658 bus2=63659 length=0.0539496 geometry=3PH_VERT_1C-AL_556_19STRAL_556_19STRAL_556_19STRACSR_1/0_6/1 normamps=619 emergamps=743 units=km enabled=true phases=3
New "Line.mdv201_107108fuse" bus1=63659.2 bus2=107108.2 length=0.001524 geometry=1PH-NONEBUSBARNONEBUSBAR normamps=2000 emergamps=2400 units=km enabled=true phases=1
New "Line.mdv201_hn_2_392_b63661" bus1=107108.2 bus2=63661.2 length=0.0402336 geometry=1PH-NONEAL_#2_7STRNONEACSR_1/0_6/1 normamps=163 emergamps=196 units=km enabled=true phases=1
New "Line.s_mdv201_hn_2_392_b63661-1b3" bus1=x_63661.2 bus2=x_63661_4.2 linecode=defaultSecondary normamps=400 emergamps=600 phases=1 length=100 units=ft
New "Line.s_mdv201_hn_2_392_b63661-1b2" bus1=x_63661.2 bus2=x_63661_3.2 linecode=defaultSecondary normamps=400 emergamps=600 phases=1 length=100 units=ft
New "Line.s_mdv201_hn_2_392_b63661-1b1" bus1=x_63661.2 bus2=x_63661_2.2 linecode=defaultSecondary normamps=400 emergamps=600 phases=1 length=100 units=ft
New "Line.s_mdv201_hn_2_392_b63661-1b0" bus1=x_63661.2 bus2=x_63661_1.2 linecode=defaultSecondary normamps=400 emergamps=600 phases=1 length=100 units=ft
New "Line.mdv201_hn_2_391_b63644" bus1=63661.2 bus2=63644.2 length=0.0582168 geometry=1PH-NONEAL_#2_7STRNONEACSR_1/0_6/1 normamps=163 emergamps=196 units=km enabled=true phases=1
New "Line.s_mdv201_hn_2_391_b63644-1b1" bus1=x_63644.2 bus2=x_63644_2.2 linecode=defaultSecondary normamps=400 emergamps=600 phases=1 length=100 units=ft
New "Line.s_mdv201_hn_2_391_b63644-1b0" bus1=x_63644.2 bus2=x_63644_1.2 linecode=defaultSecondary normamps=400 emergamps=600 phases=1 length=100 units=ft
New "Line.mdv201_hn_2_390_b63640" bus1=63644.2 bus2=63640.2 length=0.0423672 geometry=1PH-NONEAL_#2_7STRNONEACSR_1/0_6/1 normamps=163 emergamps=196 units=km enabled=true phases=1
New "Line.s_mdv201_hn_2_390_b63640-1b2" bus1=x_63640.2 bus2=x_63640_3.2 linecode=defaultSecondary normamps=400 emergamps=600 phases=1 length=100 units=ft
New "Line.s_mdv201_hn_2_390_b63640-1b1" bus1=x_63640.2 bus2=x_63640_2.2 linecode=defaultSecondary normamps=400 emergamps=600 phases=1 length=100 units=ft
New "Line.s_mdv201_hn_2_390_b63640-1b0" bus1=x_63640.2 bus2=x_63640_1.2 linecode=defaultSecondary normamps=400 emergamps=600 phases=1 length=100 units=ft
New "Line.mdv201_hn_2_396_b63635" bus1=63640.2 bus2=63635.2 length=0.0524256 geometry=1PH-NONEAL_#2_7STRNONEACSR_1/0_6/1 normamps=163 emergamps=196 units=km enabled=true phases=1
New "Line.mdv201_107106fuse" bus1=63635.2 bus2=107106.2 length=0.001524 geometry=1PH-NONEBUSBARNONEBUSBAR normamps=2000 emergamps=2400 units=km enabled=true phases=1
New "Line.mdv201_hn_2_397_b63634" bus1=107106.2 bus2=63634.2 length=0.0521208 geometry=1PH-NONEAL_#2_7STRNONEACSR_1/0_6/1 normamps=163 emergamps=196 units=km enabled=true phases=1
New "Line.s_mdv201_hn_2_397_b63634-1b4" bus1=x_63634.2 bus2=x_63634_5.2 linecode=defaultSecondary normamps=400 emergamps=600 phases=1 length=100 units=ft
New "Line.s_mdv201_hn_2_397_b63634-1b3" bus1=x_63634.2 bus2=x_63634_4.2 linecode=defaultSecondary normamps=400 emergamps=600 phases=1 length=100 units=ft
New "Line.s_mdv201_hn_2_397_b63634-1b2" bus1=x_63634.2 bus2=x_63634_3.2 linecode=defaultSecondary normamps=400 emergamps=600 phases=1 length=100 units=ft
New "Line.s_mdv201_hn_2_397_b63634-1b1" bus1=x_63634.2 bus2=x_63634_2.2 linecode=defaultSecondary normamps=400 emergamps=600 phases=1 length=100 units=ft
New "Line.s_mdv201_hn_2_397_b63634-1b0" bus1=x_63634.2 bus2=x_63634_1.2 linecode=defaultSecondary normamps=400 emergamps=600 phases=1 length=100 units=ft
New "Line.mdv201_hn_2_398_b63633" bus1=63634.2 bus2=63633.2 length=0.057912 geometry=1PH-NONEAL_#2_7STRNONEACSR_1/0_6/1 normamps=163 emergamps=196 units=km enabled=true phases=1
New "Line.s_mdv201_hn_2_398_b63633-1b2" bus1=x_63633.2 bus2=x_63633_3.2 linecode=defaultSecondary normamps=400 emergamps=600 phases=1 length=100 units=ft
New "Line.s_mdv201_hn_2_398_b63633-1b1" bus1=x_63633.2 bus2=x_63633_2.2 linecode=defaultSecondary normamps=400 emergamps=600 phases=1 length=100 units=ft
New "Line.s_mdv201_hn_2_398_b63633-1b0" bus1=x_63633.2 bus2=x_63633_1.2 linecode=defaultSecondary normamps=400 emergamps=600 phases=1 length=100 units=ft
New "Line.mdv201_hn_2_399_b63641" bus1=63633.2 bus2=63641.2 length=0.0353568 geometry=1PH-NONEAL_#2_7STRNONEACSR_1/0_6/1 normamps=163 emergamps=196 units=km enabled=true phases=1
New "Line.s_mdv201_hn_2_399_b63641-1b1" bus1=x_63641.2 bus2=x_63641_2.2 linecode=defaultSecondary normamps=400 emergamps=600 phases=1 length=100 units=ft
New "Line.s_mdv201_hn_2_399_b63641-1b0" bus1=x_63641.2 bus2=x_63641_1.2 linecode=defaultSecondary normamps=400 emergamps=600 phases=1 length=100 units=ft
New "Line.mdv201_hn_2_400_b63637" bus1=63641.2 bus2=63637.2 length=0.0454152 geometry=1PH-NONEAL_#2_7STRNONEACSR_1/0_6/1 normamps=163 emergamps=196 units=km enabled=true phases=1
New "Line.s_mdv201_hn_2_400_b63637-1b2" bus1=x_63637.2 bus2=x_63637_3.2 linecode=defaultSecondary normamps=400 emergamps=600 phases=1 length=100 units=ft
New "Line.s_mdv201_hn_2_400_b63637-1b1" bus1=x_63637.2 bus2=x_63637_2.2 linecode=defaultSecondary normamps=400 emergamps=600 phases=1 length=100 units=ft
New "Line.s_mdv201_hn_2_400_b63637-1b0" bus1=x_63637.2 bus2=x_63637_1.2 linecode=defaultSecondary normamps=400 emergamps=600 phases=1 length=100 units=ft
New "Line.mdv201_hn_2_401_b63632" bus1=63637.2 bus2=63632.2 length=0.0326136 geometry=1PH-NONEAL_#2_7STRNONEACSR_1/0_6/1 normamps=163 emergamps=196 units=km enabled=true phases=1
New "Line.s_mdv201_hn_2_401_b63632-1b1" bus1=x_63632.2 bus2=x_63632_2.2 linecode=defaultSecondary normamps=400 emergamps=600 phases=1 length=100 units=ft
New "Line.s_mdv201_hn_2_401_b63632-1b0" bus1=x_63632.2 bus2=x_63632_1.2 linecode=defaultSecondary normamps=400 emergamps=600 phases=1 length=100 units=ft
New "Line.mdv201_hn_2_402_b793" bus1=63632.2 bus2=793.2 length=0.0573024 geometry=1PH-NONEAL_#2_7STRNONEACSR_1/0_6/1 normamps=163 emergamps=196 units=km enabled=true phases=1
New "Line.s_mdv201_hn_2_402_b793-1b2" bus1=x_793.2 bus2=x_793_3.2 linecode=defaultSecondary normamps=400 emergamps=600 phases=1 length=100 units=ft
New "Line.s_mdv201_hn_2_402_b793-1b1" bus1=x_793.2 bus2=x_793_2.2 linecode=defaultSecondary normamps=400 emergamps=600 phases=1 length=100 units=ft
New "Line.s_mdv201_hn_2_402_b793-1b0" bus1=x_793.2 bus2=x_793_1.2 linecode=defaultSecondary normamps=400 emergamps=600 phases=1 length=100 units=ft
New "Line.mdv201_hn_2_403_b792" bus1=793.2 bus2=792.2 length=0.0435864 geometry=1PH-NONEAL_#2_7STRNONEACSR_1/0_6/1 normamps=163 emergamps=196 units=km enabled=true phases=1
New "Line.s_mdv201_hn_2_403_b792-1b1" bus1=x_792.2 bus2=x_792_2.2 linecode=defaultSecondary normamps=400 emergamps=600 phases=1 length=100 units=ft
New "Line.s_mdv201_hn_2_403_b792-1b0" bus1=x_792.2 bus2=x_792_1.2 linecode=defaultSecondary normamps=400 emergamps=600 phases=1 length=100 units=ft
New "Line.mdv201_hn_2_404_b799" bus1=792.2 bus2=799.2 length=0.025908 geometry=1PH-NONEAL_#2_7STRNONEACSR_1/0_6/1 normamps=163 emergamps=196 units=km enabled=true phases=1
New "Line.s_mdv201_hn_2_404_b799-1b1" bus1=x_799.2 bus2=x_799_2.2 linecode=defaultSecondary normamps=400 emergamps=600 phases=1 length=100 units=ft
New "Line.s_mdv201_hn_2_404_b799-1b0" bus1=x_799.2 bus2=x_799_1.2 linecode=defaultSecondary normamps=400 emergamps=600 phases=1 length=100 units=ft
New "Line.mdv201_hn_2_389_b63636" bus1=63640.2 bus2=63636.2 length=0.047244 geometry=1PH-NONEAL_#2_7STRNONEACSR_1/0_6/1 normamps=163 emergamps=196 units=km enabled=true phases=1
New "Line.s_mdv201_hn_2_389_b63636-1b2" bus1=x_63636.2 bus2=x_63636_3.2 linecode=defaultSecondary normamps=400 emergamps=600 phases=1 length=100 units=ft
New "Line.s_mdv201_hn_2_389_b63636-1b1" bus1=x_63636.2 bus2=x_63636_2.2 linecode=defaultSecondary normamps=400 emergamps=600 phases=1 length=100 units=ft
New "Line.s_mdv201_hn_2_389_b63636-1b0" bus1=x_63636.2 bus2=x_63636_1.2 linecode=defaultSecondary normamps=400 emergamps=600 phases=1 length=100 units=ft
New "Line.mdv201_hn_2_388_b802" bus1=63636.2 bus2=802.2 length=0.0399288 geometry=1PH-NONEAL_#2_7STRNONEACSR_1/0_6/1 normamps=163 emergamps=196 units=km enabled=true phases=1
New "Line.s_mdv201_hn_2_388_b802-1b2" bus1=x_802.2 bus2=x_802_3.2 linecode=defaultSecondary normamps=400 emergamps=600 phases=1 length=100 units=ft
New "Line.s_mdv201_hn_2_388_b802-1b1" bus1=x_802.2 bus2=x_802_2.2 linecode=defaultSecondary normamps=400 emergamps=600 phases=1 length=100 units=ft
New "Line.s_mdv201_hn_2_388_b802-1b0" bus1=x_802.2 bus2=x_802_1.2 linecode=defaultSecondary normamps=400 emergamps=600 phases=1 length=100 units=ft
New "Line.mdv201_hn_2_405_b803" bus1=802.2 bus2=803.2 length=0.051816 geometry=1PH-NONEAL_#2_7STRNONEACSR_1/0_6/1 normamps=163 emergamps=196 units=km enabled=true phases=1
New "Line.s_mdv201_hn_2_405_b803-1b1" bus1=x_803.2 bus2=x_803_2.2 linecode=defaultSecondary normamps=400 emergamps=600 phases=1 length=100 units=ft
New "Line.s_mdv201_hn_2_405_b803-1b0" bus1=x_803.2 bus2=x_803_1.2 linecode=defaultSecondary normamps=400 emergamps=600 phases=1 length=100 units=ft
New "Line.mdv201_805fuse" bus1=803.2 bus2=805.2 length=0.001524 geometry=1PH-NONEBUSBARNONEBUSBAR normamps=2000 emergamps=2400 units=km enabled=true phases=1
New "Line.mdv201_hn_2_406_b806" bus1=805.2 bus2=806.2 length=0.070104 geometry=1PH-NONEAL_#2_7STRNONEACSR_1/0_6/1 normamps=163 emergamps=196 units=km enabled=true phases=1
New "Line.s_mdv201_hn_2_406_b806-1b3" bus1=x_806.2 bus2=x_806_4.2 linecode=defaultSecondary normamps=400 emergamps=600 phases=1 length=100 units=ft
New "Line.s_mdv201_hn_2_406_b806-1b2" bus1=x_806.2 bus2=x_806_3.2 linecode=defaultSecondary normamps=400 emergamps=600 phases=1 length=100 units=ft
New "Line.s_mdv201_hn_2_406_b806-1b1" bus1=x_806.2 bus2=x_806_2.2 linecode=defaultSecondary normamps=400 emergamps=600 phases=1 length=100 units=ft
New "Line.s_mdv201_hn_2_406_b806-1b0" bus1=x_806.2 bus2=x_806_1.2 linecode=defaultSecondary normamps=400 emergamps=600 phases=1 length=100 units=ft
New "Line.mdv201_hn_2_407_b809" bus1=806.2 bus2=809.2 length=0.0545592 geometry=1PH-NONEAL_#2_7STRNONEACSR_1/0_6/1 normamps=163 emergamps=196 units=km enabled=true phases=1
New "Line.s_mdv201_hn_2_407_b809-1b2" bus1=x_809.2 bus2=x_809_3.2 linecode=defaultSecondary normamps=400 emergamps=600 phases=1 length=100 units=ft
New "Line.s_mdv201_hn_2_407_b809-1b1" bus1=x_809.2 bus2=x_809_2.2 linecode=defaultSecondary normamps=400 emergamps=600 phases=1 length=100 units=ft
New "Line.s_mdv201_hn_2_407_b809-1b0" bus1=x_809.2 bus2=x_809_1.2 linecode=defaultSecondary normamps=400 emergamps=600 phases=1 length=100 units=ft
New "Line.mdv201_hn_2_425_b813" bus1=809.2 bus2=813.2 length=0.0374904 geometry=1PH-NONEAL_#2_7STRNONEACSR_1/0_6/1 normamps=163 emergamps=196 units=km enabled=true phases=1
New "Line.s_mdv201_hn_2_425_b813-1b2" bus1=x_813.2 bus2=x_813_3.2 linecode=defaultSecondary normamps=400 emergamps=600 phases=1 length=100 units=ft
New "Line.s_mdv201_hn_2_425_b813-1b1" bus1=x_813.2 bus2=x_813_2.2 linecode=defaultSecondary normamps=400 emergamps=600 phases=1 length=100 units=ft
New "Line.s_mdv201_hn_2_425_b813-1b0" bus1=x_813.2 bus2=x_813_1.2 linecode=defaultSecondary normamps=400 emergamps=600 phases=1 length=100 units=ft
New "Line.mdv201_hn_2_426_b816" bus1=813.2 bus2=816.2 length=0.042672 geometry=1PH-NONEAL_#2_7STRNONEACSR_1/0_6/1 normamps=163 emergamps=196 units=km enabled=true phases=1
New "Line.s_mdv201_hn_2_426_b816-1b0" bus1=x_816.2 bus2=x_816_1.2 linecode=defaultSecondary normamps=400 emergamps=600 phases=1 length=100 units=ft
New "Line.mdv201_hn_2_428_b812" bus1=816.2 bus2=812.2 length=0.0524256 geometry=1PH-NONEAL_#2_7STRNONEACSR_1/0_6/1 normamps=163 emergamps=196 units=km enabled=true phases=1
New "Line.s_mdv201_hn_2_428_b812-1b3" bus1=x_812.2 bus2=x_812_4.2 linecode=defaultSecondary normamps=400 emergamps=600 phases=1 length=100 units=ft
New "Line.s_mdv201_hn_2_428_b812-1b2" bus1=x_812.2 bus2=x_812_3.2 linecode=defaultSecondary normamps=400 emergamps=600 phases=1 length=100 units=ft
New "Line.s_mdv201_hn_2_428_b812-1b1" bus1=x_812.2 bus2=x_812_2.2 linecode=defaultSecondary normamps=400 emergamps=600 phases=1 length=100 units=ft
New "Line.s_mdv201_hn_2_428_b812-1b0" bus1=x_812.2 bus2=x_812_1.2 linecode=defaultSecondary normamps=400 emergamps=600 phases=1 length=100 units=ft
New "Line.mdv201_hn_2_429_b807" bus1=812.2 bus2=807.2 length=0.0451104 geometry=1PH-NONEAL_#2_7STRNONEACSR_1/0_6/1 normamps=163 emergamps=196 units=km enabled=true phases=1
New "Line.s_mdv201_hn_2_429_b807-1b2" bus1=x_807.2 bus2=x_807_3.2 linecode=defaultSecondary normamps=400 emergamps=600 phases=1 length=100 units=ft
New "Line.s_mdv201_hn_2_429_b807-1b1" bus1=x_807.2 bus2=x_807_2.2 linecode=defaultSecondary normamps=400 emergamps=600 phases=1 length=100 units=ft
New "Line.s_mdv201_hn_2_429_b807-1b0" bus1=x_807.2 bus2=x_807_1.2 linecode=defaultSecondary normamps=400 emergamps=600 phases=1 length=100 units=ft
New "Line.mdv201_hn_2_430_b797" bus1=807.2 bus2=797.2 length=0.0393192 geometry=1PH-NONEAL_#2_7STRNONEACSR_1/0_6/1 normamps=163 emergamps=196 units=km enabled=true phases=1
New "Line.s_mdv201_hn_2_430_b797-1b1" bus1=x_797.2 bus2=x_797_2.2 linecode=defaultSecondary normamps=400 emergamps=600 phases=1 length=100 units=ft
New "Line.s_mdv201_hn_2_430_b797-1b0" bus1=x_797.2 bus2=x_797_1.2 linecode=defaultSecondary normamps=400 emergamps=600 phases=1 length=100 units=ft
New "Line.mdv201_hn_2_431_b789" bus1=797.2 bus2=789.2 length=0.0460248 geometry=1PH-NONEAL_#2_7STRNONEACSR_1/0_6/1 normamps=163 emergamps=196 units=km enabled=true phases=1
New "Line.s_mdv201_hn_2_431_b789-1b2" bus1=x_789.2 bus2=x_789_3.2 linecode=defaultSecondary normamps=400 emergamps=600 phases=1 length=100 units=ft
New "Line.s_mdv201_hn_2_431_b789-1b1" bus1=x_789.2 bus2=x_789_2.2 linecode=defaultSecondary normamps=400 emergamps=600 phases=1 length=100 units=ft
New "Line.s_mdv201_hn_2_431_b789-1b0" bus1=x_789.2 bus2=x_789_1.2 linecode=defaultSecondary normamps=400 emergamps=600 phases=1 length=100 units=ft
New "Line.mdv201_hn_2_432_b786" bus1=789.2 bus2=786.2 length=0.0460248 geometry=1PH-NONEAL_#2_7STRNONEACSR_1/0_6/1 normamps=163 emergamps=196 units=km enabled=true phases=1
New "Line.s_mdv201_hn_2_432_b786-1b1" bus1=x_786.2 bus2=x_786_2.2 linecode=defaultSecondary normamps=400 emergamps=600 phases=1 length=100 units=ft
New "Line.s_mdv201_hn_2_432_b786-1b0" bus1=x_786.2 bus2=x_786_1.2 linecode=defaultSecondary normamps=400 emergamps=600 phases=1 length=100 units=ft
New "Line.mdv201_hn_2_433_b787" bus1=786.2 bus2=787.2 length=0.0451104 geometry=1PH-NONEAL_#2_7STRNONEACSR_1/0_6/1 normamps=163 emergamps=196 units=km enabled=true phases=1
New "Line.s_mdv201_hn_2_433_b787-1b4" bus1=x_787.2 bus2=x_787_5.2 linecode=defaultSecondary normamps=400 emergamps=600 phases=1 length=100 units=ft
New "Line.s_mdv201_hn_2_433_b787-1b3" bus1=x_787.2 bus2=x_787_4.2 linecode=defaultSecondary normamps=400 emergamps=600 phases=1 length=100 units=ft
New "Line.s_mdv201_hn_2_433_b787-1b2" bus1=x_787.2 bus2=x_787_3.2 linecode=defaultSecondary normamps=400 emergamps=600 phases=1 length=100 units=ft
New "Line.s_mdv201_hn_2_433_b787-1b1" bus1=x_787.2 bus2=x_787_2.2 linecode=defaultSecondary normamps=400 emergamps=600 phases=1 length=100 units=ft
New "Line.s_mdv201_hn_2_433_b787-1b0" bus1=x_787.2 bus2=x_787_1.2 linecode=defaultSecondary normamps=400 emergamps=600 phases=1 length=100 units=ft
New "Line.mdv201_hn_2_427_b826" bus1=816.2 bus2=826.2 length=0.0630936 geometry=1PH-NONEAL_#2_7STRNONEACSR_1/0_6/1 normamps=163 emergamps=196 units=km enabled=true phases=1
New "Line.s_mdv201_hn_2_427_b826-1b1" bus1=x_826.2 bus2=x_826_2.2 linecode=defaultSecondary normamps=400 emergamps=600 phases=1 length=100 units=ft
New "Line.s_mdv201_hn_2_427_b826-1b0" bus1=x_826.2 bus2=x_826_1.2 linecode=defaultSecondary normamps=400 emergamps=600 phases=1 length=100 units=ft
New "Line.mdv201_hn_2_387_b804" bus1=802.2 bus2=804.2 length=0.051816 geometry=1PH-NONEAL_#2_7STRNONEACSR_1/0_6/1 normamps=163 emergamps=196 units=km enabled=true phases=1
New "Line.s_mdv201_hn_2_387_b804-1b2" bus1=x_804.2 bus2=x_804_3.2 linecode=defaultSecondary normamps=400 emergamps=600 phases=1 length=100 units=ft
New "Line.s_mdv201_hn_2_387_b804-1b1" bus1=x_804.2 bus2=x_804_2.2 linecode=defaultSecondary normamps=400 emergamps=600 phases=1 length=100 units=ft
New "Line.s_mdv201_hn_2_387_b804-1b0" bus1=x_804.2 bus2=x_804_1.2 linecode=defaultSecondary normamps=400 emergamps=600 phases=1 length=100 units=ft
New "Line.mdv201_hn_2_386_b811" bus1=804.2 bus2=811.2 length=0.0377952 geometry=1PH-NONEAL_#2_7STRNONEACSR_1/0_6/1 normamps=163 emergamps=196 units=km enabled=true phases=1
New "Line.s_mdv201_hn_2_386_b811-1b2" bus1=x_811.2 bus2=x_811_3.2 linecode=defaultSecondary normamps=400 emergamps=600 phases=1 length=100 units=ft
New "Line.s_mdv201_hn_2_386_b811-1b1" bus1=x_811.2 bus2=x_811_2.2 linecode=defaultSecondary normamps=400 emergamps=600 phases=1 length=100 units=ft
New "Line.s_mdv201_hn_2_386_b811-1b0" bus1=x_811.2 bus2=x_811_1.2 linecode=defaultSecondary normamps=400 emergamps=600 phases=1 length=100 units=ft
New "Line.sw-hn_2_393_sw" bus1=63659 bus2=mdv201_107109usd_int length=0.001 Switch=True units=km enabled=true phases=3
New "Line.mdv201_107109usd" bus1=mdv201_107109usd_int bus2=107109 length=0.001524 geometry=3PH_HORIZ_LG_1C-BUSBARBUSBARBUSBARBUSBAR normamps=2000 emergamps=2400 units=km enabled=true phases=3
New "Line.mdv201_hn_2_145_abc63662" bus1=107109 bus2=63662 length=0.054864 geometry=3PH_VERT_1C-AL_556_19STRAL_556_19STRAL_556_19STRACSR_1/0_6/1 normamps=619 emergamps=743 units=km enabled=true phases=3
New "Line.mdv201_hn_2_144_abc63664" bus1=63662 bus2=63664 length=0.0688848 geometry=3PH_HORIZ_LG_1C-AL_336_19STRAL_336_19STRAL_336_19STRACSR_1/0_6/1 normamps=453 emergamps=544 units=km enabled=true phases=3
New "Line.mdv201_hn_2_143_abc63642" bus1=63664 bus2=63642 length=0.0795528 geometry=3PH_HORIZ_LG_1C-AL_336_19STRAL_336_19STRAL_336_19STRACSR_1/0_6/1 normamps=453 emergamps=544 units=km enabled=true phases=3
New "Line.s_mdv201_hn_2_143_abc63642-1a0" bus1=x_63642.1 bus2=x_63642_1.1 linecode=defaultSecondary normamps=400 emergamps=600 phases=1 length=100 units=ft
New "Line.mdv201_hn_2_141_abc800" bus1=63642 bus2=800 length=0.0728472 geometry=3PH_HORIZ_LG_1C-AL_336_19STRAL_336_19STRAL_336_19STRACSR_1/0_6/1 normamps=453 emergamps=544 units=km enabled=true phases=3
New "Line.s_mdv201_hn_2_141_abc800-1a1" bus1=x_800.1 bus2=x_800_2.1 linecode=defaultSecondary normamps=400 emergamps=600 phases=1 length=100 units=ft
New "Line.s_mdv201_hn_2_141_abc800-1a0" bus1=x_800.1 bus2=x_800_1.1 linecode=defaultSecondary normamps=400 emergamps=600 phases=1 length=100 units=ft
New "Line.mdv201_hn_2_250_abc801" bus1=800 bus2=801 length=0.0734568 geometry=3PH_HORIZ_LG_1C-AL_336_19STRAL_336_19STRAL_336_19STRACSR_1/0_6/1 normamps=453 emergamps=544 units=km enabled=true phases=3
New "Line.s_mdv201_hn_2_250_abc801-1a1" bus1=x_801.1 bus2=x_801_2.1 linecode=defaultSecondary normamps=400 emergamps=600 phases=1 length=100 units=ft
New "Line.s_mdv201_hn_2_250_abc801-1a0" bus1=x_801.1 bus2=x_801_1.1 linecode=defaultSecondary normamps=400 emergamps=600 phases=1 length=100 units=ft
New "Line.mdv201_hn_2_228_abc810" bus1=801 bus2=810 length=0.0490728 geometry=3PH_VERT_1C-AL_336_19STRAL_336_19STRAL_336_19STRACSR_1/0_6/1 normamps=453 emergamps=544 units=km enabled=true phases=3
New "Line.mdv201_hn_2_136_abc1010734" bus1=810 bus2=1010734 length=0.070104 geometry=3PH_VERT_1C-CU_#2_7STRCU_#2_7STRCU_#2_7STRACSR_1/0_6/1 normamps=224 emergamps=169 units=km enabled=true phases=3
...
