ODSS/sub/Loads.dss
New "Load.mdv201_hn_2_436_abc63639-1b0" phases=1 bus1=x_63639_1.2 kV=0.24 kW=7.101012 pf=0.9342 status=variable model=4 CVRwatts=0.8 CVRvars=3 class=1 yearly=Residential conn=wye
New "Load.mdv201_hn_2_435_abc63643-1b1" phases=1 bus1=x_63643_2.2 kV=0.24 kW=3.3171635 pf=0.9342 status=variable model=4 CVRwatts=0.8 CVRvars=3 class=1 yearly=Residential conn=wye
New "Load.mdv201_hn_2_435_abc63643-1b0" phases=1 bus1=x_63643_1.2 kV=0.24 kW=3.3171635 pf=0.9342 status=variable model=4 CVRwatts=0.8 CVRvars=3 class=1 yearly=Residential conn=wye
New "Load.mdv201_hn_2_434_abc63645-1b1" phases=1 bus1=x_63645_2.2 kV=0.24 kW=4.8220685 pf=0.9342 status=variable model=4 CVRwatts=0.8 CVRvars=3 class=1 yearly=Residential conn=wye
New "Load.mdv201_hn_2_434_abc63645-1b0" phases=1 bus1=x_63645_1.2 kV=0.24 kW=4.8220685 pf=0.9342 status=variable model=4 CVRwatts=0.8 CVRvars=3 class=1 yearly=Residential conn=wye
New "Load.mdv201_hn_2_408_abc63655-1b1" phases=1 bus1=x_63655_2.2 kV=0.24 kW=4.883745 pf=0.9342 status=variable model=4 CVRwatts=0.8 CVRvars=3 class=1 yearly=Residential conn=wye
New "Load.mdv201_hn_2_408_abc63655-1b0" phases=1 bus1=x_63655_1.2 kV=0.24 kW=4.883745 pf=0.9342 status=variable model=4 CVRwatts=0.8 CVRvars=3 class=1 yearly=Residential conn=wye
New "Load.mdv201_hn_2_395_abc63657-1b0" phases=1 bus1=x_63657_1.2 kV=0.24 kW=2.808333 pf=0.9342 status=variable model=4 CVRwatts=0.8 CVRvars=3 class=1 yearly=Residential conn=wye
New "Load.mdv201_hn_2_283_abc14857-1b1" phases=1 bus1=x_14857_2.2 kV=0.24 kW=1.813287 pf=0.9342 status=variable model=4 CVRwatts=0.8 CVRvars=3 class=2 yearly=Commercial_SM conn=wye
New "Load.mdv201_hn_2_283_abc14857-1b0" phases=1 bus1=x_14857_1.2 kV=0.24 kW=1.813287 pf=0.9342 status=variable model=4 CVRwatts=0.8 CVRvars=3 class=2 yearly=Commercial_SM conn=wye
New "Load.mdv201_hn_2_964_a14870-1a3" phases=1 bus1=x_14870_4.1 kV=0.24 kW=4.245006 pf=0.9234 status=variable model=4 CVRwatts=0.8 CVRvars=3 class=1 yearly=Residential conn=wye
New "Load.mdv201_hn_2_964_a14870-1a2" phases=1 bus1=x_14870_3.1 kV=0.24 kW=4.245006 pf=0.9234 status=variable model=4 CVRwatts=0.8 CVRvars=3 class=1 yearly=Residential conn=wye
New "Load.mdv201_hn_2_964_a14870-1a1" phases=1 bus1=x_14870_2.1 kV=0.24 kW=4.245006 pf=0.9234 status=variable model=4 CVRwatts=0.8 CVRvars=3 class=1 yearly=Residential conn=wye
New "Load.mdv201_hn_2_964_a14870-1a0" phases=1 bus1=x_14870_1.1 kV=0.24 kW=4.245006 pf=0.9234 status=variable model=4 CVRwatts=0.8 CVRvars=3 class=1 yearly=Residential conn=wye
New "Load.mdv201_hn_2_966_a63718-1a3" phases=1 bus1=x_63718_4.1 kV=0.24 kW=5.0112695 pf=0.9234 status=variable model=4 CVRwatts=0.8 CVRvars=3 class=1 yearly=Residential conn=wye
New "Load.mdv201_hn_2_966_a63718-1a2" phases=1 bus1=x_63718_3.1 kV=0.24 kW=5.0112695 pf=0.9234 status=variable model=4 CVRwatts=0.8 CVRvars=3 class=1 yearly=Residential conn=wye
New "Load.mdv201_hn_2_966_a63718-1a1" phases=1 bus1=x_63718_2.1 kV=0.24 kW=5.0112695 pf=0.9234 status=variable model=4 CVRwatts=0.8 CVRvars=3 class=1 yearly=Residential conn=wye
New "Load.mdv201_hn_2_966_a63718-1a0" phases=1 bus1=x_63718_1.1 kV=0.24 kW=5.0112695 pf=0.9234 status=variable model=4 CVRwatts=0.8 CVRvars=3 class=1 yearly=Residential conn=wye
New "Load.mdv201_hn_2_967_a63715-1a2" phases=1 bus1=x_63715_3.1 kV=0.24 kW=4.796416 pf=0.9234 status=variable model=4 CVRwatts=0.8 CVRvars=3 class=1 yearly=Residential conn=wye
New "Load.mdv201_hn_2_967_a63715-1a1" phases=1 bus1=x_63715_2.1 kV=0.24 kW=4.796416 pf=0.9234 status=variable model=4 CVRwatts=0.8 CVRvars=3 class=1 yearly=Residential conn=wye
New "Load.mdv201_hn_2_967_a63715-1a0" phases=1 bus1=x_63715_1.1 kV=0.24 kW=4.796416 pf=0.9234 status=variable model=4 CVRwatts=0.8 CVRvars=3 class=1 yearly=Residential conn=wye
New "Load.mdv201_hn_2_968_a63713-1a3" phases=1 bus1=x_63713_4.1 kV=0.24 kW=4.7767415 pf=0.9234 status=variable model=4 CVRwatts=0.8 CVRvars=3 class=1 yearly=Residential conn=wye
New "Load.mdv201_hn_2_968_a63713-1a2" phases=1 bus1=x_63713_3.1 kV=0.24 kW=4.7767415 pf=0.9234 status=variable model=4 CVRwatts=0.8 CVRvars=3 class=1 yearly=Residential conn=wye
New "Load.mdv201_hn_2_968_a63713-1a1" phases=1 bus1=x_63713_2.1 kV=0.24 kW=4.7767415 pf=0.9234 status=variable model=4 CVRwatts=0.8 CVRvars=3 class=1 yearly=Residential conn=wye
New "Load.mdv201_hn_2_968_a63713-1a0" phases=1 bus1=x_63713_1.1 kV=0.24 kW=4.7767415 pf=0.9234 status=variable model=4 CVRwatts=0.8 CVRvars=3 class=1 yearly=Residential conn=wye
New "Load.mdv201_hn_2_969_a63709-1a1" phases=1 bus1=x_63709_2.1 kV=0.24 kW=6.7694445 pf=0.9234 status=variable model=4 CVRwatts=0.8 CVRvars=3 class=1 yearly=Residential conn=wye
New "Load.mdv201_hn_2_969_a63709-1a0" phases=1 bus1=x_63709_1.1 kV=0.24 kW=6.7694445 pf=0.9234 status=variable model=4 CVRwatts=0.8 CVRvars=3 class=1 yearly=Residential conn=wye
New "Load.mdv201_hn_2_970_a63710-1a3" phases=1 bus1=x_63710_4.1 kV=0.24 kW=5.09170875 pf=0.9234 status=variable model=4 CVRwatts=0.8 CVRvars=3 class=1 yearly=Residential conn=wye
New "Load.mdv201_hn_2_970_a63710-1a2" phases=1 bus1=x_63710_3.1 kV=0.24 kW=5.09170875 pf=0.9234 status=variable model=4 CVRwatts=0.8 CVRvars=3 class=1 yearly=Residential conn=wye
New "Load.mdv201_hn_2_970_a63710-1a1" phases=1 bus1=x_63710_2.1 kV=0.24 kW=5.09170875 pf=0.9234 status=variable model=4 CVRwatts=0.8 CVRvars=3 class=1 yearly=Residential conn=wye
New "Load.mdv201_hn_2_970_a63710-1a0" phases=1 bus1=x_63710_1.1 kV=0.24 kW=5.09170875 pf=0.9234 status=variable model=4 CVRwatts=0.8 CVRvars=3 class=1 yearly=Residential conn=wye
New "Load.mdv201_hn_2_094_abc51012-1b0" phases=1 bus1=x_51012_1.2 kV=0.24 kW=10.398645 pf=0.9342 status=variable model=4 CVRwatts=0.8 CVRvars=3 class=1 yearly=Residential conn=wye
New "Load.mdv201_hn_2_729_b28246-1b0" phases=1 bus1=x_28246_1.2 kV=0.24 kW=4.853935 pf=0.9342 status=variable model=4 CVRwatts=0.8 CVRvars=3 class=1 yearly=Residential conn=wye
New "Load.mdv201_hn_2_731_b14852-1b0" phases=1 bus1=x_14852_1.2 kV=0.24 kW=4.263897 pf=0.9342 status=variable model=4 CVRwatts=0.8 CVRvars=3 class=1 yearly=Residential conn=wye
New "Load.mdv201_hn_2_394_abc63658-1b0" phases=1 bus1=x_63658_1.2 kV=0.24 kW=5.361737 pf=0.9342 status=variable model=4 CVRwatts=0.8 CVRvars=3 class=1 yearly=Residential conn=wye
New "Load.mdv201_hn_2_392_b63661-1b3" phases=1 bus1=x_63661_4.2 kV=0.24 kW=3.6281155 pf=0.9342 status=variable model=4 CVRwatts=0.8 CVRvars=3 class=1 yearly=Residential conn=wye
New "Load.mdv201_hn_2_392_b63661-1b2" phases=1 bus1=x_63661_3.2 kV=0.24 kW=3.6281155 pf=0.9342 status=variable model=4 CVRwatts=0.8 CVRvars=3 class=1 yearly=Residential conn=wye
New "Load.mdv201_hn_2_392_b63661-1b1" phases=1 bus1=x_63661_2.2 kV=0.24 kW=3.6281155 pf=0.9342 status=variable model=4 CVRwatts=0.8 CVRvars=3 class=1 yearly=Residential conn=wye
New "Load.mdv201_hn_2_392_b63661-1b0" phases=1 bus1=x_63661_1.2 kV=0.24 kW=3.6281155 pf=0.9342 status=variable model=4 CVRwatts=0.8 CVRvars=3 class=1 yearly=Residential conn=wye
New "Load.mdv201_hn_2_391_b63644-1b1" phases=1 bus1=x_63644_2.2 kV=0.24 kW=3.621434 pf=0.9342 status=variable model=4 CVRwatts=0.8 CVRvars=3 class=1 yearly=Residential conn=wye
New "Load.mdv201_hn_2_391_b63644-1b0" phases=1 bus1=x_63644_1.2 kV=0.24 kW=3.621434 pf=0.9342 status=variable model=4 CVRwatts=0.8 CVRvars=3 class=1 yearly=Residential conn=wye
New "Load.mdv201_hn_2_390_b63640-1b2" phases=1 bus1=x_63640_3.2 kV=0.24 kW=5.130108 pf=0.9342 status=variable model=4 CVRwatts=0.8 CVRvars=3 class=1 yearly=Residential conn=wye
New "Load.mdv201_hn_2_390_b63640-1b1" phases=1 bus1=x_63640_2.2 kV=0.24 kW=5.130108 pf=0.9342 status=variable model=4 CVRwatts=0.8 CVRvars=3 class=1 yearly=Residential conn=wye
New "Load.mdv201_hn_2_390_b63640-1b0" phases=1 bus1=x_63640_1.2 kV=0.24 kW=5.130108 pf=0.9342 status=variable model=4 CVRwatts=0.8 CVRvars=3 class=1 yearly=Residential conn=wye
New "Load.mdv201_hn_2_397_b63634-1b4" phases=1 bus1=x_63634_5.2 kV=0.24 kW=5.328843 pf=0.9342 status=variable model=4 CVRwatts=0.8 CVRvars=3 class=1 yearly=Residential conn=wye
New "Load.mdv201_hn_2_397_b63634-1b3" phases=1 bus1=x_63634_4.2 kV=0.24 kW=5.328843 pf=0.9342 status=variable model=4 CVRwatts=0.8 CVRvars=3 class=1 yearly=Residential conn=wye
New "Load.mdv201_hn_2_397_b63634-1b2" phases=1 bus1=x_63634_3.2 kV=0.24 kW=5.328843 pf=0.9342 status=variable model=4 CVRwatts=0.8 CVRvars=3 class=1 yearly=Residential conn=wye
New "Load.mdv201_hn_2_397_b63634-1b1" phases=1 bus1=x_63634_2.2 kV=0.24 kW=5.328843 pf=0.9342 status=variable model=4 CVRwatts=0.8 CVRvars=3 class=1 yearly=Residential conn=wye
New "Load.mdv201_hn_2_397_b63634-1b0" phases=1 bus1=x_63634_1.2 kV=0.24 kW=5.328843 pf=0.9342 status=variable model=4 CVRwatts=0.8 CVRvars=3 class=1 yearly=Residential conn=wye
New "Load.mdv201_hn_2_398_b63633-1b2" phases=1 bus1=x_63633_3.2 kV=0.24 kW=4.31940566666667 pf=0.9342 status=variable model=4 CVRwatts=0.8 CVRvars=3 class=1 yearly=Residential conn=wye
New "Load.mdv201_hn_2_398_b63633-1b1" phases=1 bus1=x_63633_2.2 kV=0.24 kW=4.31940566666667 pf=0.9342 status=variable model=4 CVRwatts=0.8 CVRvars=3 class=1 yearly=Residential conn=wye
New "Load.mdv201_hn_2_398_b63633-1b0" phases=1 bus1=x_63633_1.2 kV=0.24 kW=4.31940566666667 pf=0.9342 status=variable model=4 CVRwatts=0.8 CVRvars=3 class=1 yearly=Residential conn=wye
New "Load.mdv201_hn_2_399_b63641-1b1" phases=1 bus1=x_63641_2.2 kV=0.24 kW=4.8230965 pf=0.9342 status=variable model=4 CVRwatts=0.8 CVRvars=3 class=1 yearly=Residential conn=wye
New "Load.mdv201_hn_2_399_b63641-1b0" phases=1 bus1=x_63641_1.2 kV=0.24 kW=4.8230965 pf=0.9342 status=variable model=4 CVRwatts=0.8 CVRvars=3 class=1 yearly=Residential conn=wye
New "Load.mdv201_hn_2_400_b63637-1b2" phases=1 bus1=x_63637_3.2 kV=0.24 kW=6.61856566666667 pf=0.9342 status=variable model=4 CVRwatts=0.8 CVRvars=3 class=1 yearly=Residential conn=wye
New "Load.mdv201_hn_2_400_b63637-1b1" phases=1 bus1=x_63637_2.2 kV=0.24 kW=6.61856566666667 pf=0.9342 status=variable model=4 CVRwatts=0.8 CVRvars=3 class=1 yearly=Residential conn=wye
...