ODSS/zone1/Branches.dss
New "Line.mdv201_hn_2_343_abc829" bus1=822 bus2=829 length=0.06096 geometry=3PH_VERT_1C-CU_#2_7STRCU_#2_7STRCU_#2_7STRACSR_1/0_6/1 normamps=224 emergamps=169 units=km enabled=true phases=3
New "Line.s_mdv201_hn_2_343_abc829-1b2" bus1=x_829.2 bus2=x_829_3.2 linecode=defaultSecondary normamps=400 emergamps=600 phases=1 length=100 units=ft
New "Line.s_mdv201_hn_2_343_abc829-1b1" bus1=x_829.2 bus2=x_829_2.2 linecode=defaultSecondary normamps=400 emergamps=600 phases=1 length=100 units=ft
New "Line.s_mdv201_hn_2_343_abc829-1b0" bus1=x_829.2 bus2=x_829_1.2 linecode=defaultSecondary normamps=400 emergamps=600 phases=1 length=100 units=ft
New "Line.mdv201_hn_2_499_abc834" bus1=829 bus2=834 length=0.088392 geometry=3PH_HORIZ_LG_1C-CU_#2_7STRCU_#2_7STRCU_#2_7STRACSR_1/0_6/1 normamps=224 emergamps=169 units=km enabled=true phases=3
New "Line.mdv201_hn_2_200_abc841" bus1=834 bus2=841 length=0.0768096 geometry=3PH_HORIZ_LG_1C-CU_#2_7STRCU_#2_7STRCU_#2_7STRACSR_1/0_6/1 normamps=224 emergamps=169 units=km enabled=true phases=3
New "Line.mdv201_hn_2_867_c839" bus1=841.3 bus2=839.3 length=0.01524 geometry=1PH-NONENONEAL_1/0_7STRACSR_1/0_6/1 normamps=218 emergamps=262 units=km enabled=true phases=1
New "Line.s_mdv201_hn_2_867_c839-1c0" bus1=x_839.3 bus2=x_839_1.3 linecode=defaultSecondary normamps=400 emergamps=600 phases=1 length=100 units=ft
New "Line.mdv201_1144261fuse" bus1=839.3 bus2=1144261.3 length=0.001524 geometry=1PH-NONENONEBUSBARBUSBAR normamps=2000 emergamps=2400 units=km enabled=true phases=1
New "Line.mdv201_hn_2_868_c833" bus1=1144261.3 bus2=833.3 length=0.0664464 geometry=1PH-NONENONEAL_1/0_7STRACSR_1/0_6/1 normamps=218 emergamps=262 units=km enabled=true phases=1
New "Line.s_mdv201_hn_2_868_c833-1c2" bus1=x_833.3 bus2=x_833_3.3 linecode=defaultSecondary normamps=400 emergamps=600 phases=1 length=100 units=ft
New "Line.s_mdv201_hn_2_868_c833-1c1" bus1=x_833.3 bus2=x_833_2.3 linecode=defaultSecondary normamps=400 emergamps=600 phases=1 length=100 units=ft
New "Line.s_mdv201_hn_2_868_c833-1c0" bus1=x_833.3 bus2=x_833_1.3 linecode=defaultSecondary normamps=400 emergamps=600 phases=1 length=100 units=ft
New "Line.mdv201_hn_2_869_c830" bus1=833.3 bus2=830.3 length=0.0417576 geometry=1PH-NONENONEAL_1/0_7STRACSR_1/0_6/1 normamps=218 emergamps=262 units=km enabled=true phases=1
New "Line.s_mdv201_hn_2_869_c830-1c2" bus1=x_830.3 bus2=x_830_3.3 linecode=defaultSecondary normamps=400 emergamps=600 phases=1 length=100 units=ft
New "Line.s_mdv201_hn_2_869_c830-1c1" bus1=x_830.3 bus2=x_830_2.3 linecode=defaultSecondary normamps=400 emergamps=600 phases=1 length=100 units=ft
New "Line.s_mdv201_hn_2_869_c830-1c0" bus1=x_830.3 bus2=x_830_1.3 linecode=defaultSecondary normamps=400 emergamps=600 phases=1 length=100 units=ft
New "Line.mdv201_hn_2_870_c831" bus1=830.3 bus2=831.3 length=0.0536448 geometry=1PH-NONENONEAL_1/0_7STRACSR_1/0_6/1 normamps=218 emergamps=262 units=km enabled=true phases=1
New "Line.s_mdv201_hn_2_870_c831-1c2" bus1=x_831.3 bus2=x_831_3.3 linecode=defaultSecondary normamps=400 emergamps=600 phases=1 length=100 units=ft
New "Line.s_mdv201_hn_2_870_c831-1c1" bus1=x_831.3 bus2=x_831_2.3 linecode=defaultSecondary normamps=400 emergamps=600 phases=1 length=100 units=ft
New "Line.s_mdv201_hn_2_870_c831-1c0" bus1=x_831.3 bus2=x_831_1.3 linecode=defaultSecondary normamps=400 emergamps=600 phases=1 length=100 units=ft
New "Line.mdv201_hn_2_871_c39630" bus1=831.3 bus2=39630.3 length=0.0466344 geometry=1PH-NONENONEAL_1/0_7STRACSR_1/0_6/1 normamps=218 emergamps=262 units=km enabled=true phases=1
New "Line.s_mdv201_hn_2_871_c39630-1c2" bus1=x_39630.3 bus2=x_39630_3.3 linecode=defaultSecondary normamps=400 emergamps=600 phases=1 length=100 units=ft
New "Line.s_mdv201_hn_2_871_c39630-1c1" bus1=x_39630.3 bus2=x_39630_2.3 linecode=defaultSecondary normamps=400 emergamps=600 phases=1 length=100 units=ft
New "Line.s_mdv201_hn_2_871_c39630-1c0" bus1=x_39630.3 bus2=x_39630_1.3 linecode=defaultSecondary normamps=400 emergamps=600 phases=1 length=100 units=ft
New "Line.mdv201_hn_2_872_c63667" bus1=39630.3 bus2=63667.3 length=0.0469392 geometry=1PH-NONENONEAL_1/0_7STRACSR_1/0_6/1 normamps=218 emergamps=262 units=km enabled=true phases=1
New "Line.s_mdv201_hn_2_872_c63667-1c2" bus1=x_63667.3 bus2=x_63667_3.3 linecode=defaultSecondary normamps=400 emergamps=600 phases=1 length=100 units=ft
New "Line.s_mdv201_hn_2_872_c63667-1c1" bus1=x_63667.3 bus2=x_63667_2.3 linecode=defaultSecondary normamps=400 emergamps=600 phases=1 length=100 units=ft
New "Line.s_mdv201_hn_2_872_c63667-1c0" bus1=x_63667.3 bus2=x_63667_1.3 linecode=defaultSecondary normamps=400 emergamps=600 phases=1 length=100 units=ft
New "Line.mdv201_hn_2_873_c63668" bus1=63667.3 bus2=63668.3 length=0.0490728 geometry=1PH-NONENONEAL_1/0_7STRACSR_1/0_6/1 normamps=218 emergamps=262 units=km enabled=true phases=1
...